4289537
  -OEChem-06242511163D

 16 16  0     0  0  0  0  0  0999 V2000
    3.0770   -1.2887    0.0005 O   0  5  0  0  0  0  0  0  0  0  0  0
    3.2599    0.9618   -0.0006 O   0  0  0  0  0  0  0  0  0  0  0  0
   -3.9018   -0.6255    0.0000 O   0  0  0  0  0  0  0  0  0  0  0  0
    1.0837    0.0060    0.0007 C   0  0  0  0  0  0  0  0  0  0  0  0
   -1.6968    0.2324   -0.0010 C   0  0  0  0  0  0  0  0  0  0  0  0
    0.4865    1.2666    0.0005 C   0  0  0  0  0  0  0  0  0  0  0  0
    0.2906   -1.1413    0.0000 C   0  0  0  0  0  0  0  0  0  0  0  0
   -0.9038    1.3798   -0.0002 C   0  0  0  0  0  0  0  0  0  0  0  0
   -1.0997   -1.0283   -0.0008 C   0  0  0  0  0  0  0  0  0  0  0  0
    2.5506   -0.1132    0.0000 C   0  0  0  0  0  0  0  0  0  0  0  0
   -3.1461    0.3504    0.0010 C   0  0  0  0  0  0  0  0  0  0  0  0
    1.0780    2.1781    0.0008 H   0  0  0  0  0  0  0  0  0  0  0  0
    0.7270   -2.1365    0.0000 H   0  0  0  0  0  0  0  0  0  0  0  0
   -1.3545    2.3689    0.0002 H   0  0  0  0  0  0  0  0  0  0  0  0
   -1.6980   -1.9356   -0.0010 H   0  0  0  0  0  0  0  0  0  0  0  0
   -3.5598    1.3732    0.0025 H   0  0  0  0  0  0  0  0  0  0  0  0
  1 10  1  0  0  0  0
  2 10  2  0  0  0  0
  3 11  2  0  0  0  0
  4  6  2  0  0  0  0
  4  7  1  0  0  0  0
  4 10  1  0  0  0  0
  5  8  2  0  0  0  0
  5  9  1  0  0  0  0
  5 11  1  0  0  0  0
  6  8  1  0  0  0  0
  6 12  1  0  0  0  0
  7  9  2  0  0  0  0
  7 13  1  0  0  0  0
  8 14  1  0  0  0  0
  9 15  1  0  0  0  0
 11 16  1  0  0  0  0
M  CHG  1   1  -1
M  END
> <PUBCHEM_COMPOUND_CID>
4289537

> <PUBCHEM_CONFORMER_RMSD>
0.4

> <PUBCHEM_CONFORMER_DIVERSEORDER>
1

> <PUBCHEM_MMFF94_PARTIAL_CHARGES>
16
1 -0.9
10 0.98
11 0.42
12 0.15
13 0.15
14 0.15
15 0.15
16 0.06
2 -0.9
3 -0.57
4 -0.18
5 0.09
6 -0.15
7 -0.15
8 -0.15
9 -0.15

> <PUBCHEM_EFFECTIVE_ROTOR_COUNT>
2

> <PUBCHEM_PHARMACOPHORE_FEATURES>
5
1 1 acceptor
1 2 acceptor
1 3 acceptor
3 1 2 10 anion
6 4 5 6 7 8 9 rings

> <PUBCHEM_HEAVY_ATOM_COUNT>
11

> <PUBCHEM_ATOM_DEF_STEREO_COUNT>
0

> <PUBCHEM_ATOM_UDEF_STEREO_COUNT>
0

> <PUBCHEM_BOND_DEF_STEREO_COUNT>
0

> <PUBCHEM_BOND_UDEF_STEREO_COUNT>
0

> <PUBCHEM_ISOTOPIC_ATOM_COUNT>
0

> <PUBCHEM_COMPONENT_COUNT>
1

> <PUBCHEM_CACTVS_TAUTO_COUNT>
1

> <PUBCHEM_CONFORMER_ID>
0041740100000001

> <PUBCHEM_MMFF94_ENERGY>
26.0111

> <PUBCHEM_FEATURE_SELFOVERLAP>
25.433

> <PUBCHEM_SHAPE_FINGERPRINT>
10219947 1 18413110558719427471
11062470 55 17632860840856092145
12032990 46 18410017623904949083
12932764 1 16845562106670783088
14325111 11 18410575067578311169
14993402 34 18342457066794653277
16945 1 18410855468744561093
193761 8 17618222149223340193
20645477 70 18340200796105136015
21293036 1 18335419092786202637
23235685 24 18411132550048849229
23402539 116 18272358754995437638
23402655 69 18195509421688363829
23463225 33 18337390444141602766
23552423 10 18260832570755023510
2748010 2 18050287273429492181
369184 2 18412261718510167664
5084963 1 18343018844121886320
528886 8 18411695521376867394

> <PUBCHEM_SHAPE_MULTIPOLES>
208.77
5.32
1.4
0.59
0.75
0.08
0
-0.6
0
-0.27
0
0.02
0.01
0

> <PUBCHEM_SHAPE_SELFOVERLAP>
440.901

> <PUBCHEM_SHAPE_VOLUME>
116.3

> <PUBCHEM_COORDINATE_TYPE>
2
5
10

$$$$
